[root]
type=Root
children=system
eventq_index=0
full_system=true
sim_quantum=0
time_sync_enable=false
time_sync_period=100000000000
time_sync_spin_threshold=100000000

[system]
type=LinuxAlphaSystem
children=clk_domain cpu00 cpu01 cpu02 cpu03 cpu04 cpu05 cpu06 cpu07 cpu08 cpu09 cpu10 cpu11 cpu12 cpu13 cpu14 cpu15 cpu_clk_domain cpu_voltage_domain cpufreq1100MHz cpufreq1200MHz cpufreq1300MHz cpufreq1400MHz cpufreq1500MHz cpufreq1600MHz cpufreq1700MHz cpufreq1800MHz cpufreq1900MHz cpufreq1GHz cpufreq2GHz cpufreq500MHz cpufreq800MHz disk0 disk2 intrctrl iobus mem_ctrls ruby simple_disk sys_port_proxy terminal tsunami voltage_domain
boot_cpu_frequency=500
boot_osflags=root=/dev/hda1 console=ttyS0
cache_line_size=64
clk_domain=system.clk_domain
console=/home/milad/gem5/full_system_images_ALPHA/binaries/console
eventq_index=0
init_param=0
kernel=/home/milad/gem5/full_system_images_ALPHA/binaries/vmlinux_2.6.27-gcc_4.3.4
load_addr_mask=1099511627775
load_offset=0
mem_mode=timing
mem_ranges=0:536870911
memories=system.mem_ctrls
num_work_ids=16
pal=/home/milad/gem5/full_system_images_ALPHA/binaries/ts_osfpal
readfile=run_scripts/splash2x_cholsky.rcS
symbolfile=
system_rev=1024
system_type=34
work_begin_ckpt_count=0
work_begin_cpu_id_exit=-1
work_begin_exit_count=0
work_cpus_ckpt_count=0
work_end_ckpt_count=0
work_end_exit_count=0
work_item_id=-1
system_port=system.sys_port_proxy.slave[0]

[system.cpu0]
type=DerivO3CPU
children=branchPred dtb fuPool isa itb tracer
LFSTSize=1024
LQEntries=32
LSQCheckLoads=true
LSQDepCheckShift=4
SQEntries=32
SSITSize=1024
activity=0
backComSize=5
branchPred=system.cpu0.branchPred
cachePorts=200
checker=Null
clk_domain=system.cpufreq2GHz
commitToDecodeDelay=1
commitToFetchDelay=1
commitToIEWDelay=1
commitToRenameDelay=1
commitWidth=8
cpu_id=0
decodeToFetchDelay=1
decodeToRenameDelay=1
decodeWidth=8
dispatchWidth=8
do_checkpoint_insts=true
do_quiesce=true
do_statistics_insts=true
dtb=system.cpu0.dtb
eventq_index=0
fetchBufferSize=64
fetchToDecodeDelay=1
fetchTrapLatency=1
fetchWidth=8
forwardComSize=5
fuPool=system.cpu0.fuPool
function_trace=false
function_trace_start=0
iewToCommitDelay=1
iewToDecodeDelay=1
iewToFetchDelay=1
iewToRenameDelay=1
interrupts=Null
isa=system.cpu0.isa
issueToExecuteDelay=1
issueWidth=8
itb=system.cpu0.itb
max_insts_all_threads=0
max_insts_any_thread=0
max_loads_all_threads=0
max_loads_any_thread=0
needsTSO=false
numIQEntries=64
numPhysCCRegs=0
numPhysFloatRegs=256
numPhysIntRegs=256
numROBEntries=192
numRobs=1
numThreads=1
profile=0
progress_interval=0
renameToDecodeDelay=1
renameToFetchDelay=1
renameToIEWDelay=2
renameToROBDelay=1
renameWidth=8
simpoint_start_insts=
smtCommitPolicy=RoundRobin
smtFetchPolicy=SingleThread
smtIQPolicy=Partitioned
smtIQThreshold=100
smtLSQPolicy=Partitioned
smtLSQThreshold=100
smtNumFetchingThreads=1
smtROBPolicy=Partitioned
smtROBThreshold=100
socket_id=0
squashWidth=8
store_set_clear_period=250000
switched_out=true
system=system
tracer=system.cpu0.tracer
trapLatency=13
wbDepth=1
wbWidth=8
workload=

[system.cpu0.branchPred]
type=BranchPredictor
BTBEntries=4096
BTBTagSize=16
RASSize=16
choiceCtrBits=2
choicePredictorSize=8192
eventq_index=0
globalCtrBits=2
globalPredictorSize=8192
instShiftAmt=2
localCtrBits=2
localHistoryTableSize=2048
localPredictorSize=2048
numThreads=1
predType=tournament

[system.cpu0.dtb]
type=AlphaTLB
eventq_index=0
size=64

[system.cpu0.fuPool]
type=FUPool
children=FUList0 FUList1 FUList2 FUList3 FUList4 FUList5 FUList6 FUList7 FUList8
FUList=system.cpu0.fuPool.FUList0 system.cpu0.fuPool.FUList1 system.cpu0.fuPool.FUList2 system.cpu0.fuPool.FUList3 system.cpu0.fuPool.FUList4 system.cpu0.fuPool.FUList5 system.cpu0.fuPool.FUList6 system.cpu0.fuPool.FUList7 system.cpu0.fuPool.FUList8
eventq_index=0

[system.cpu0.fuPool.FUList0]
type=FUDesc
children=opList
count=6
eventq_index=0
opList=system.cpu0.fuPool.FUList0.opList

[system.cpu0.fuPool.FUList0.opList]
type=OpDesc
eventq_index=0
issueLat=1
opClass=IntAlu
opLat=1

[system.cpu0.fuPool.FUList1]
type=FUDesc
children=opList0 opList1
count=2
eventq_index=0
opList=system.cpu0.fuPool.FUList1.opList0 system.cpu0.fuPool.FUList1.opList1

[system.cpu0.fuPool.FUList1.opList0]
type=OpDesc
eventq_index=0
issueLat=1
opClass=IntMult
opLat=3

[system.cpu0.fuPool.FUList1.opList1]
type=OpDesc
eventq_index=0
issueLat=19
opClass=IntDiv
opLat=20

[system.cpu0.fuPool.FUList2]
type=FUDesc
children=opList0 opList1 opList2
count=4
eventq_index=0
opList=system.cpu0.fuPool.FUList2.opList0 system.cpu0.fuPool.FUList2.opList1 system.cpu0.fuPool.FUList2.opList2

[system.cpu0.fuPool.FUList2.opList0]
type=OpDesc
eventq_index=0
issueLat=1
opClass=FloatAdd
opLat=2

[system.cpu0.fuPool.FUList2.opList1]
type=OpDesc
eventq_index=0
issueLat=1
opClass=FloatCmp
opLat=2

[system.cpu0.fuPool.FUList2.opList2]
type=OpDesc
eventq_index=0
issueLat=1
opClass=FloatCvt
opLat=2

[system.cpu0.fuPool.FUList3]
type=FUDesc
children=opList0 opList1 opList2
count=2
eventq_index=0
opList=system.cpu0.fuPool.FUList3.opList0 system.cpu0.fuPool.FUList3.opList1 system.cpu0.fuPool.FUList3.opList2

[system.cpu0.fuPool.FUList3.opList0]
type=OpDesc
eventq_index=0
issueLat=1
opClass=FloatMult
opLat=4

[system.cpu0.fuPool.FUList3.opList1]
type=OpDesc
eventq_index=0
issueLat=12
opClass=FloatDiv
opLat=12

[system.cpu0.fuPool.FUList3.opList2]
type=OpDesc
eventq_index=0
issueLat=24
opClass=FloatSqrt
opLat=24

[system.cpu0.fuPool.FUList4]
type=FUDesc
children=opList
count=0
eventq_index=0
opList=system.cpu0.fuPool.FUList4.opList

[system.cpu0.fuPool.FUList4.opList]
type=OpDesc
eventq_index=0
issueLat=1
opClass=MemRead
opLat=1

[system.cpu0.fuPool.FUList5]
type=FUDesc
children=opList00 opList01 opList02 opList03 opList04 opList05 opList06 opList07 opList08 opList09 opList10 opList11 opList12 opList13 opList14 opList15 opList16 opList17 opList18 opList19
count=4
eventq_index=0
opList=system.cpu0.fuPool.FUList5.opList00 system.cpu0.fuPool.FUList5.opList01 system.cpu0.fuPool.FUList5.opList02 system.cpu0.fuPool.FUList5.opList03 system.cpu0.fuPool.FUList5.opList04 system.cpu0.fuPool.FUList5.opList05 system.cpu0.fuPool.FUList5.opList06 system.cpu0.fuPool.FUList5.opList07 system.cpu0.fuPool.FUList5.opList08 system.cpu0.fuPool.FUList5.opList09 system.cpu0.fuPool.FUList5.opList10 system.cpu0.fuPool.FUList5.opList11 system.cpu0.fuPool.FUList5.opList12 system.cpu0.fuPool.FUList5.opList13 system.cpu0.fuPool.FUList5.opList14 system.cpu0.fuPool.FUList5.opList15 system.cpu0.fuPool.FUList5.opList16 system.cpu0.fuPool.FUList5.opList17 system.cpu0.fuPool.FUList5.opList18 system.cpu0.fuPool.FUList5.opList19

[system.cpu0.fuPool.FUList5.opList00]
type=OpDesc
eventq_index=0
issueLat=1
opClass=SimdAdd
opLat=1

[system.cpu0.fuPool.FUList5.opList01]
type=OpDesc
eventq_index=0
issueLat=1
opClass=SimdAddAcc
opLat=1

[system.cpu0.fuPool.FUList5.opList02]
type=OpDesc
eventq_index=0
issueLat=1
opClass=SimdAlu
opLat=1

[system.cpu0.fuPool.FUList5.opList03]
type=OpDesc
eventq_index=0
issueLat=1
opClass=SimdCmp
opLat=1

[system.cpu0.fuPool.FUList5.opList04]
type=OpDesc
eventq_index=0
issueLat=1
opClass=SimdCvt
opLat=1

[system.cpu0.fuPool.FUList5.opList05]
type=OpDesc
eventq_index=0
issueLat=1
opClass=SimdMisc
opLat=1

[system.cpu0.fuPool.FUList5.opList06]
type=OpDesc
eventq_index=0
issueLat=1
opClass=SimdMult
opLat=1

[system.cpu0.fuPool.FUList5.opList07]
type=OpDesc
eventq_index=0
issueLat=1
opClass=SimdMultAcc
opLat=1

[system.cpu0.fuPool.FUList5.opList08]
type=OpDesc
eventq_index=0
issueLat=1
opClass=SimdShift
opLat=1

[system.cpu0.fuPool.FUList5.opList09]
type=OpDesc
eventq_index=0
issueLat=1
opClass=SimdShiftAcc
opLat=1

[system.cpu0.fuPool.FUList5.opList10]
type=OpDesc
eventq_index=0
issueLat=1
opClass=SimdSqrt
opLat=1

[system.cpu0.fuPool.FUList5.opList11]
type=OpDesc
eventq_index=0
issueLat=1
opClass=SimdFloatAdd
opLat=1

[system.cpu0.fuPool.FUList5.opList12]
type=OpDesc
eventq_index=0
issueLat=1
opClass=SimdFloatAlu
opLat=1

[system.cpu0.fuPool.FUList5.opList13]
type=OpDesc
eventq_index=0
issueLat=1
opClass=SimdFloatCmp
opLat=1

[system.cpu0.fuPool.FUList5.opList14]
type=OpDesc
eventq_index=0
issueLat=1
opClass=SimdFloatCvt
opLat=1

[system.cpu0.fuPool.FUList5.opList15]
type=OpDesc
eventq_index=0
issueLat=1
opClass=SimdFloatDiv
opLat=1

[system.cpu0.fuPool.FUList5.opList16]
type=OpDesc
eventq_index=0
issueLat=1
opClass=SimdFloatMisc
opLat=1

[system.cpu0.fuPool.FUList5.opList17]
type=OpDesc
eventq_index=0
issueLat=1
opClass=SimdFloatMult
opLat=1

[system.cpu0.fuPool.FUList5.opList18]
type=OpDesc
eventq_index=0
issueLat=1
opClass=SimdFloatMultAcc
opLat=1

[system.cpu0.fuPool.FUList5.opList19]
type=OpDesc
eventq_index=0
issueLat=1
opClass=SimdFloatSqrt
opLat=1

[system.cpu0.fuPool.FUList6]
type=FUDesc
children=opList
count=0
eventq_index=0
opList=system.cpu0.fuPool.FUList6.opList

[system.cpu0.fuPool.FUList6.opList]
type=OpDesc
eventq_index=0
issueLat=1
opClass=MemWrite
opLat=1

[system.cpu0.fuPool.FUList7]
type=FUDesc
children=opList0 opList1
count=4
eventq_index=0
opList=system.cpu0.fuPool.FUList7.opList0 system.cpu0.fuPool.FUList7.opList1

[system.cpu0.fuPool.FUList7.opList0]
type=OpDesc
eventq_index=0
issueLat=1
opClass=MemRead
opLat=1

[system.cpu0.fuPool.FUList7.opList1]
type=OpDesc
eventq_index=0
issueLat=1
opClass=MemWrite
opLat=1

[system.cpu0.fuPool.FUList8]
type=FUDesc
children=opList
count=1
eventq_index=0
opList=system.cpu0.fuPool.FUList8.opList

[system.cpu0.fuPool.FUList8.opList]
type=OpDesc
eventq_index=0
issueLat=3
opClass=IprAccess
opLat=3

[system.cpu0.isa]
type=AlphaISA
eventq_index=0
system=system

[system.cpu0.itb]
type=AlphaTLB
eventq_index=0
size=48

[system.cpu0.tracer]
type=ExeTracer
eventq_index=0

[system.cpu1]
type=DerivO3CPU
children=branchPred dtb fuPool isa itb tracer
LFSTSize=1024
LQEntries=32
LSQCheckLoads=true
LSQDepCheckShift=4
SQEntries=32
SSITSize=1024
activity=0
backComSize=5
branchPred=system.cpu1.branchPred
cachePorts=200
checker=Null
clk_domain=system.cpufreq2GHz
commitToDecodeDelay=1
commitToFetchDelay=1
commitToIEWDelay=1
commitToRenameDelay=1
commitWidth=8
cpu_id=1
decodeToFetchDelay=1
decodeToRenameDelay=1
decodeWidth=8
dispatchWidth=8
do_checkpoint_insts=true
do_quiesce=true
do_statistics_insts=true
dtb=system.cpu1.dtb
eventq_index=0
fetchBufferSize=64
fetchToDecodeDelay=1
fetchTrapLatency=1
fetchWidth=8
forwardComSize=5
fuPool=system.cpu1.fuPool
function_trace=false
function_trace_start=0
iewToCommitDelay=1
iewToDecodeDelay=1
iewToFetchDelay=1
iewToRenameDelay=1
interrupts=Null
isa=system.cpu1.isa
issueToExecuteDelay=1
issueWidth=8
itb=system.cpu1.itb
max_insts_all_threads=0
max_insts_any_thread=0
max_loads_all_threads=0
max_loads_any_thread=0
needsTSO=false
numIQEntries=64
numPhysCCRegs=0
numPhysFloatRegs=256
numPhysIntRegs=256
numROBEntries=192
numRobs=1
numThreads=1
profile=0
progress_interval=0
renameToDecodeDelay=1
renameToFetchDelay=1
renameToIEWDelay=2
renameToROBDelay=1
renameWidth=8
simpoint_start_insts=
smtCommitPolicy=RoundRobin
smtFetchPolicy=SingleThread
smtIQPolicy=Partitioned
smtIQThreshold=100
smtLSQPolicy=Partitioned
smtLSQThreshold=100
smtNumFetchingThreads=1
smtROBPolicy=Partitioned
smtROBThreshold=100
socket_id=0
squashWidth=8
store_set_clear_period=250000
switched_out=true
system=system
tracer=system.cpu1.tracer
trapLatency=13
wbDepth=1
wbWidth=8
workload=

[system.cpu1.branchPred]
type=BranchPredictor
BTBEntries=4096
BTBTagSize=16
RASSize=16
choiceCtrBits=2
choicePredictorSize=8192
eventq_index=0
globalCtrBits=2
globalPredictorSize=8192
instShiftAmt=2
localCtrBits=2
localHistoryTableSize=2048
localPredictorSize=2048
numThreads=1
predType=tournament

[system.cpu1.dtb]
type=AlphaTLB
eventq_index=0
size=64

[system.cpu1.fuPool]
type=FUPool
children=FUList0 FUList1 FUList2 FUList3 FUList4 FUList5 FUList6 FUList7 FUList8
FUList=system.cpu1.fuPool.FUList0 system.cpu1.fuPool.FUList1 system.cpu1.fuPool.FUList2 system.cpu1.fuPool.FUList3 system.cpu1.fuPool.FUList4 system.cpu1.fuPool.FUList5 system.cpu1.fuPool.FUList6 system.cpu1.fuPool.FUList7 system.cpu1.fuPool.FUList8
eventq_index=0

[system.cpu1.fuPool.FUList0]
type=FUDesc
children=opList
count=6
eventq_index=0
opList=system.cpu1.fuPool.FUList0.opList

[system.cpu1.fuPool.FUList0.opList]
type=OpDesc
eventq_index=0
issueLat=1
opClass=IntAlu
opLat=1

[system.cpu1.fuPool.FUList1]
type=FUDesc
children=opList0 opList1
count=2
eventq_index=0
opList=system.cpu1.fuPool.FUList1.opList0 system.cpu1.fuPool.FUList1.opList1

[system.cpu1.fuPool.FUList1.opList0]
type=OpDesc
eventq_index=0
issueLat=1
opClass=IntMult
opLat=3

[system.cpu1.fuPool.FUList1.opList1]
type=OpDesc
eventq_index=0
issueLat=19
opClass=IntDiv
opLat=20

[system.cpu1.fuPool.FUList2]
type=FUDesc
children=opList0 opList1 opList2
count=4
eventq_index=0
opList=system.cpu1.fuPool.FUList2.opList0 system.cpu1.fuPool.FUList2.opList1 system.cpu1.fuPool.FUList2.opList2

[system.cpu1.fuPool.FUList2.opList0]
type=OpDesc
eventq_index=0
issueLat=1
opClass=FloatAdd
opLat=2

[system.cpu1.fuPool.FUList2.opList1]
type=OpDesc
eventq_index=0
issueLat=1
opClass=FloatCmp
opLat=2

[system.cpu1.fuPool.FUList2.opList2]
type=OpDesc
eventq_index=0
issueLat=1
opClass=FloatCvt
opLat=2

[system.cpu1.fuPool.FUList3]
type=FUDesc
children=opList0 opList1 opList2
count=2
eventq_index=0
opList=system.cpu1.fuPool.FUList3.opList0 system.cpu1.fuPool.FUList3.opList1 system.cpu1.fuPool.FUList3.opList2

[system.cpu1.fuPool.FUList3.opList0]
type=OpDesc
eventq_index=0
issueLat=1
opClass=FloatMult
opLat=4

[system.cpu1.fuPool.FUList3.opList1]
type=OpDesc
eventq_index=0
issueLat=12
opClass=FloatDiv
opLat=12

[system.cpu1.fuPool.FUList3.opList2]
type=OpDesc
eventq_index=0
issueLat=24
opClass=FloatSqrt
opLat=24

[system.cpu1.fuPool.FUList4]
type=FUDesc
children=opList
count=0
eventq_index=0
opList=system.cpu1.fuPool.FUList4.opList

[system.cpu1.fuPool.FUList4.opList]
type=OpDesc
eventq_index=0
issueLat=1
opClass=MemRead
opLat=1

[system.cpu1.fuPool.FUList5]
type=FUDesc
children=opList00 opList01 opList02 opList03 opList04 opList05 opList06 opList07 opList08 opList09 opList10 opList11 opList12 opList13 opList14 opList15 opList16 opList17 opList18 opList19
count=4
eventq_index=0
opList=system.cpu1.fuPool.FUList5.opList00 system.cpu1.fuPool.FUList5.opList01 system.cpu1.fuPool.FUList5.opList02 system.cpu1.fuPool.FUList5.opList03 system.cpu1.fuPool.FUList5.opList04 system.cpu1.fuPool.FUList5.opList05 system.cpu1.fuPool.FUList5.opList06 system.cpu1.fuPool.FUList5.opList07 system.cpu1.fuPool.FUList5.opList08 system.cpu1.fuPool.FUList5.opList09 system.cpu1.fuPool.FUList5.opList10 system.cpu1.fuPool.FUList5.opList11 system.cpu1.fuPool.FUList5.opList12 system.cpu1.fuPool.FUList5.opList13 system.cpu1.fuPool.FUList5.opList14 system.cpu1.fuPool.FUList5.opList15 system.cpu1.fuPool.FUList5.opList16 system.cpu1.fuPool.FUList5.opList17 system.cpu1.fuPool.FUList5.opList18 system.cpu1.fuPool.FUList5.opList19

[system.cpu1.fuPool.FUList5.opList00]
type=OpDesc
eventq_index=0
issueLat=1
opClass=SimdAdd
opLat=1

[system.cpu1.fuPool.FUList5.opList01]
type=OpDesc
eventq_index=0
issueLat=1
opClass=SimdAddAcc
opLat=1

[system.cpu1.fuPool.FUList5.opList02]
type=OpDesc
eventq_index=0
issueLat=1
opClass=SimdAlu
opLat=1

[system.cpu1.fuPool.FUList5.opList03]
type=OpDesc
eventq_index=0
issueLat=1
opClass=SimdCmp
opLat=1

[system.cpu1.fuPool.FUList5.opList04]
type=OpDesc
eventq_index=0
issueLat=1
opClass=SimdCvt
opLat=1

[system.cpu1.fuPool.FUList5.opList05]
type=OpDesc
eventq_index=0
issueLat=1
opClass=SimdMisc
opLat=1

[system.cpu1.fuPool.FUList5.opList06]
type=OpDesc
eventq_index=0
issueLat=1
opClass=SimdMult
opLat=1

[system.cpu1.fuPool.FUList5.opList07]
type=OpDesc
eventq_index=0
issueLat=1
opClass=SimdMultAcc
opLat=1

[system.cpu1.fuPool.FUList5.opList08]
type=OpDesc
eventq_index=0
issueLat=1
opClass=SimdShift
opLat=1

[system.cpu1.fuPool.FUList5.opList09]
type=OpDesc
eventq_index=0
issueLat=1
opClass=SimdShiftAcc
opLat=1

[system.cpu1.fuPool.FUList5.opList10]
type=OpDesc
eventq_index=0
issueLat=1
opClass=SimdSqrt
opLat=1

[system.cpu1.fuPool.FUList5.opList11]
type=OpDesc
eventq_index=0
issueLat=1
opClass=SimdFloatAdd
opLat=1

[system.cpu1.fuPool.FUList5.opList12]
type=OpDesc
eventq_index=0
issueLat=1
opClass=SimdFloatAlu
opLat=1

[system.cpu1.fuPool.FUList5.opList13]
type=OpDesc
eventq_index=0
issueLat=1
opClass=SimdFloatCmp
opLat=1

[system.cpu1.fuPool.FUList5.opList14]
type=OpDesc
eventq_index=0
issueLat=1
opClass=SimdFloatCvt
opLat=1

[system.cpu1.fuPool.FUList5.opList15]
type=OpDesc
eventq_index=0
issueLat=1
opClass=SimdFloatDiv
opLat=1

[system.cpu1.fuPool.FUList5.opList16]
type=OpDesc
eventq_index=0
issueLat=1
opClass=SimdFloatMisc
opLat=1

[system.cpu1.fuPool.FUList5.opList17]
type=OpDesc
eventq_index=0
issueLat=1
opClass=SimdFloatMult
opLat=1

[system.cpu1.fuPool.FUList5.opList18]
type=OpDesc
eventq_index=0
issueLat=1
opClass=SimdFloatMultAcc
opLat=1

[system.cpu1.fuPool.FUList5.opList19]
type=OpDesc
eventq_index=0
issueLat=1
opClass=SimdFloatSqrt
opLat=1

[system.cpu1.fuPool.FUList6]
type=FUDesc
children=opList
count=0
eventq_index=0
opList=system.cpu1.fuPool.FUList6.opList

[system.cpu1.fuPool.FUList6.opList]
type=OpDesc
eventq_index=0
issueLat=1
opClass=MemWrite
opLat=1

[system.cpu1.fuPool.FUList7]
type=FUDesc
children=opList0 opList1
count=4
eventq_index=0
opList=system.cpu1.fuPool.FUList7.opList0 system.cpu1.fuPool.FUList7.opList1

[system.cpu1.fuPool.FUList7.opList0]
type=OpDesc
eventq_index=0
issueLat=1
opClass=MemRead
opLat=1

[system.cpu1.fuPool.FUList7.opList1]
type=OpDesc
eventq_index=0
issueLat=1
opClass=MemWrite
opLat=1

[system.cpu1.fuPool.FUList8]
type=FUDesc
children=opList
count=1
eventq_index=0
opList=system.cpu1.fuPool.FUList8.opList

[system.cpu1.fuPool.FUList8.opList]
type=OpDesc
eventq_index=0
issueLat=3
opClass=IprAccess
opLat=3

[system.cpu1.isa]
type=AlphaISA
eventq_index=0
system=system

[system.cpu1.itb]
type=AlphaTLB
eventq_index=0
size=48

[system.cpu1.tracer]
type=ExeTracer
eventq_index=0

[system.cpu2]
type=DerivO3CPU
children=branchPred dtb fuPool isa itb tracer
LFSTSize=1024
LQEntries=32
LSQCheckLoads=true
LSQDepCheckShift=4
SQEntries=32
SSITSize=1024
activity=0
backComSize=5
branchPred=system.cpu2.branchPred
cachePorts=200
checker=Null
clk_domain=system.cpufreq2GHz
commitToDecodeDelay=1
commitToFetchDelay=1
commitToIEWDelay=1
commitToRenameDelay=1
commitWidth=8
cpu_id=2
decodeToFetchDelay=1
decodeToRenameDelay=1
decodeWidth=8
dispatchWidth=8
do_checkpoint_insts=true
do_quiesce=true
do_statistics_insts=true
dtb=system.cpu2.dtb
eventq_index=0
fetchBufferSize=64
fetchToDecodeDelay=1
fetchTrapLatency=1
fetchWidth=8
forwardComSize=5
fuPool=system.cpu2.fuPool
function_trace=false
function_trace_start=0
iewToCommitDelay=1
iewToDecodeDelay=1
iewToFetchDelay=1
iewToRenameDelay=1
interrupts=Null
isa=system.cpu2.isa
issueToExecuteDelay=1
issueWidth=8
itb=system.cpu2.itb
max_insts_all_threads=0
max_insts_any_thread=0
max_loads_all_threads=0
max_loads_any_thread=0
needsTSO=false
numIQEntries=64
numPhysCCRegs=0
numPhysFloatRegs=256
numPhysIntRegs=256
numROBEntries=192
numRobs=1
numThreads=1
profile=0
progress_interval=0
renameToDecodeDelay=1
renameToFetchDelay=1
renameToIEWDelay=2
renameToROBDelay=1
renameWidth=8
simpoint_start_insts=
smtCommitPolicy=RoundRobin
smtFetchPolicy=SingleThread
smtIQPolicy=Partitioned
smtIQThreshold=100
smtLSQPolicy=Partitioned
smtLSQThreshold=100
smtNumFetchingThreads=1
smtROBPolicy=Partitioned
smtROBThreshold=100
socket_id=0
squashWidth=8
store_set_clear_period=250000
switched_out=true
system=system
tracer=system.cpu2.tracer
trapLatency=13
wbDepth=1
wbWidth=8
workload=

[system.cpu2.branchPred]
type=BranchPredictor
BTBEntries=4096
BTBTagSize=16
RASSize=16
choiceCtrBits=2
choicePredictorSize=8192
eventq_index=0
globalCtrBits=2
globalPredictorSize=8192
instShiftAmt=2
localCtrBits=2
localHistoryTableSize=2048
localPredictorSize=2048
numThreads=1
predType=tournament

[system.cpu2.dtb]
type=AlphaTLB
eventq_index=0
size=64

[system.cpu2.fuPool]
type=FUPool
children=FUList0 FUList1 FUList2 FUList3 FUList4 FUList5 FUList6 FUList7 FUList8
FUList=system.cpu2.fuPool.FUList0 system.cpu2.fuPool.FUList1 system.cpu2.fuPool.FUList2 system.cpu2.fuPool.FUList3 system.cpu2.fuPool.FUList4 system.cpu2.fuPool.FUList5 system.cpu2.fuPool.FUList6 system.cpu2.fuPool.FUList7 system.cpu2.fuPool.FUList8
eventq_index=0

[system.cpu2.fuPool.FUList0]
type=FUDesc
children=opList
count=6
eventq_index=0
opList=system.cpu2.fuPool.FUList0.opList

[system.cpu2.fuPool.FUList0.opList]
type=OpDesc
eventq_index=0
issueLat=1
opClass=IntAlu
opLat=1

[system.cpu2.fuPool.FUList1]
type=FUDesc
children=opList0 opList1
count=2
eventq_index=0
opList=system.cpu2.fuPool.FUList1.opList0 system.cpu2.fuPool.FUList1.opList1

[system.cpu2.fuPool.FUList1.opList0]
type=OpDesc
eventq_index=0
issueLat=1
opClass=IntMult
opLat=3

[system.cpu2.fuPool.FUList1.opList1]
type=OpDesc
eventq_index=0
issueLat=19
opClass=IntDiv
opLat=20

[system.cpu2.fuPool.FUList2]
type=FUDesc
children=opList0 opList1 opList2
count=4
eventq_index=0
opList=system.cpu2.fuPool.FUList2.opList0 system.cpu2.fuPool.FUList2.opList1 system.cpu2.fuPool.FUList2.opList2

[system.cpu2.fuPool.FUList2.opList0]
type=OpDesc
eventq_index=0
issueLat=1
opClass=FloatAdd
opLat=2

[system.cpu2.fuPool.FUList2.opList1]
type=OpDesc
eventq_index=0
issueLat=1
opClass=FloatCmp
opLat=2

[system.cpu2.fuPool.FUList2.opList2]
type=OpDesc
eventq_index=0
issueLat=1
opClass=FloatCvt
opLat=2

[system.cpu2.fuPool.FUList3]
type=FUDesc
children=opList0 opList1 opList2
count=2
eventq_index=0
opList=system.cpu2.fuPool.FUList3.opList0 system.cpu2.fuPool.FUList3.opList1 system.cpu2.fuPool.FUList3.opList2

[system.cpu2.fuPool.FUList3.opList0]
type=OpDesc
eventq_index=0
issueLat=1
opClass=FloatMult
opLat=4

[system.cpu2.fuPool.FUList3.opList1]
type=OpDesc
eventq_index=0
issueLat=12
opClass=FloatDiv
opLat=12

[system.cpu2.fuPool.FUList3.opList2]
type=OpDesc
eventq_index=0
issueLat=24
opClass=FloatSqrt
opLat=24

[system.cpu2.fuPool.FUList4]
type=FUDesc
children=opList
count=0
eventq_index=0
opList=system.cpu2.fuPool.FUList4.opList

[system.cpu2.fuPool.FUList4.opList]
type=OpDesc
eventq_index=0
issueLat=1
opClass=MemRead
opLat=1

[system.cpu2.fuPool.FUList5]
type=FUDesc
children=opList00 opList01 opList02 opList03 opList04 opList05 opList06 opList07 opList08 opList09 opList10 opList11 opList12 opList13 opList14 opList15 opList16 opList17 opList18 opList19
count=4
eventq_index=0
opList=system.cpu2.fuPool.FUList5.opList00 system.cpu2.fuPool.FUList5.opList01 system.cpu2.fuPool.FUList5.opList02 system.cpu2.fuPool.FUList5.opList03 system.cpu2.fuPool.FUList5.opList04 system.cpu2.fuPool.FUList5.opList05 system.cpu2.fuPool.FUList5.opList06 system.cpu2.fuPool.FUList5.opList07 system.cpu2.fuPool.FUList5.opList08 system.cpu2.fuPool.FUList5.opList09 system.cpu2.fuPool.FUList5.opList10 system.cpu2.fuPool.FUList5.opList11 system.cpu2.fuPool.FUList5.opList12 system.cpu2.fuPool.FUList5.opList13 system.cpu2.fuPool.FUList5.opList14 system.cpu2.fuPool.FUList5.opList15 system.cpu2.fuPool.FUList5.opList16 system.cpu2.fuPool.FUList5.opList17 system.cpu2.fuPool.FUList5.opList18 system.cpu2.fuPool.FUList5.opList19

[system.cpu2.fuPool.FUList5.opList00]
type=OpDesc
eventq_index=0
issueLat=1
opClass=SimdAdd
opLat=1

[system.cpu2.fuPool.FUList5.opList01]
type=OpDesc
eventq_index=0
issueLat=1
opClass=SimdAddAcc
opLat=1

[system.cpu2.fuPool.FUList5.opList02]
type=OpDesc
eventq_index=0
issueLat=1
opClass=SimdAlu
opLat=1

[system.cpu2.fuPool.FUList5.opList03]
type=OpDesc
eventq_index=0
issueLat=1
opClass=SimdCmp
opLat=1

[system.cpu2.fuPool.FUList5.opList04]
type=OpDesc
eventq_index=0
issueLat=1
opClass=SimdCvt
opLat=1

[system.cpu2.fuPool.FUList5.opList05]
type=OpDesc
eventq_index=0
issueLat=1
opClass=SimdMisc
opLat=1

[system.cpu2.fuPool.FUList5.opList06]
type=OpDesc
eventq_index=0
issueLat=1
opClass=SimdMult
opLat=1

[system.cpu2.fuPool.FUList5.opList07]
type=OpDesc
eventq_index=0
issueLat=1
opClass=SimdMultAcc
opLat=1

[system.cpu2.fuPool.FUList5.opList08]
type=OpDesc
eventq_index=0
issueLat=1
opClass=SimdShift
opLat=1

[system.cpu2.fuPool.FUList5.opList09]
type=OpDesc
eventq_index=0
issueLat=1
opClass=SimdShiftAcc
opLat=1

[system.cpu2.fuPool.FUList5.opList10]
type=OpDesc
eventq_index=0
issueLat=1
opClass=SimdSqrt
opLat=1

[system.cpu2.fuPool.FUList5.opList11]
type=OpDesc
eventq_index=0
issueLat=1
opClass=SimdFloatAdd
opLat=1

[system.cpu2.fuPool.FUList5.opList12]
type=OpDesc
eventq_index=0
issueLat=1
opClass=SimdFloatAlu
opLat=1

[system.cpu2.fuPool.FUList5.opList13]
type=OpDesc
eventq_index=0
issueLat=1
opClass=SimdFloatCmp
opLat=1

[system.cpu2.fuPool.FUList5.opList14]
type=OpDesc
eventq_index=0
issueLat=1
opClass=SimdFloatCvt
opLat=1

[system.cpu2.fuPool.FUList5.opList15]
type=OpDesc
eventq_index=0
issueLat=1
opClass=SimdFloatDiv
opLat=1

[system.cpu2.fuPool.FUList5.opList16]
type=OpDesc
eventq_index=0
issueLat=1
opClass=SimdFloatMisc
opLat=1

[system.cpu2.fuPool.FUList5.opList17]
type=OpDesc
eventq_index=0
issueLat=1
opClass=SimdFloatMult
opLat=1

[system.cpu2.fuPool.FUList5.opList18]
type=OpDesc
eventq_index=0
issueLat=1
opClass=SimdFloatMultAcc
opLat=1

[system.cpu2.fuPool.FUList5.opList19]
type=OpDesc
eventq_index=0
issueLat=1
opClass=SimdFloatSqrt
opLat=1

[system.cpu2.fuPool.FUList6]
type=FUDesc
children=opList
count=0
eventq_index=0
opList=system.cpu2.fuPool.FUList6.opList

[system.cpu2.fuPool.FUList6.opList]
type=OpDesc
eventq_index=0
issueLat=1
opClass=MemWrite
opLat=1

[system.cpu2.fuPool.FUList7]
type=FUDesc
children=opList0 opList1
count=4
eventq_index=0
opList=system.cpu2.fuPool.FUList7.opList0 system.cpu2.fuPool.FUList7.opList1

[system.cpu2.fuPool.FUList7.opList0]
type=OpDesc
eventq_index=0
issueLat=1
opClass=MemRead
opLat=1

[system.cpu2.fuPool.FUList7.opList1]
type=OpDesc
eventq_index=0
issueLat=1
opClass=MemWrite
opLat=1

[system.cpu2.fuPool.FUList8]
type=FUDesc
children=opList
count=1
eventq_index=0
opList=system.cpu2.fuPool.FUList8.opList

[system.cpu2.fuPool.FUList8.opList]
type=OpDesc
eventq_index=0
issueLat=3
opClass=IprAccess
opLat=3

[system.cpu2.isa]
type=AlphaISA
eventq_index=0
system=system

[system.cpu2.itb]
type=AlphaTLB
eventq_index=0
size=48

[system.cpu2.tracer]
type=ExeTracer
eventq_index=0

[system.cpu3]
type=DerivO3CPU
children=branchPred dtb fuPool isa itb tracer
LFSTSize=1024
LQEntries=32
LSQCheckLoads=true
LSQDepCheckShift=4
SQEntries=32
SSITSize=1024
activity=0
backComSize=5
branchPred=system.cpu3.branchPred
cachePorts=200
checker=Null
clk_domain=system.cpufreq2GHz
commitToDecodeDelay=1
commitToFetchDelay=1
commitToIEWDelay=1
commitToRenameDelay=1
commitWidth=8
cpu_id=3
decodeToFetchDelay=1
decodeToRenameDelay=1
decodeWidth=8
dispatchWidth=8
do_checkpoint_insts=true
do_quiesce=true
do_statistics_insts=true
dtb=system.cpu3.dtb
eventq_index=0
fetchBufferSize=64
fetchToDecodeDelay=1
fetchTrapLatency=1
fetchWidth=8
forwardComSize=5
fuPool=system.cpu3.fuPool
function_trace=false
function_trace_start=0
iewToCommitDelay=1
iewToDecodeDelay=1
iewToFetchDelay=1
iewToRenameDelay=1
interrupts=Null
isa=system.cpu3.isa
issueToExecuteDelay=1
issueWidth=8
itb=system.cpu3.itb
max_insts_all_threads=0
max_insts_any_thread=0
max_loads_all_threads=0
max_loads_any_thread=0
needsTSO=false
numIQEntries=64
numPhysCCRegs=0
numPhysFloatRegs=256
numPhysIntRegs=256
numROBEntries=192
numRobs=1
numThreads=1
profile=0
progress_interval=0
renameToDecodeDelay=1
renameToFetchDelay=1
renameToIEWDelay=2
renameToROBDelay=1
renameWidth=8
simpoint_start_insts=
smtCommitPolicy=RoundRobin
smtFetchPolicy=SingleThread
smtIQPolicy=Partitioned
smtIQThreshold=100
smtLSQPolicy=Partitioned
smtLSQThreshold=100
smtNumFetchingThreads=1
smtROBPolicy=Partitioned
smtROBThreshold=100
socket_id=0
squashWidth=8
store_set_clear_period=250000
switched_out=true
system=system
tracer=system.cpu3.tracer
trapLatency=13
wbDepth=1
wbWidth=8
workload=

[system.cpu3.branchPred]
type=BranchPredictor
BTBEntries=4096
BTBTagSize=16
RASSize=16
choiceCtrBits=2
choicePredictorSize=8192
eventq_index=0
globalCtrBits=2
globalPredictorSize=8192
instShiftAmt=2
localCtrBits=2
localHistoryTableSize=2048
localPredictorSize=2048
numThreads=1
predType=tournament

[system.cpu3.dtb]
type=AlphaTLB
eventq_index=0
size=64

[system.cpu3.fuPool]
type=FUPool
children=FUList0 FUList1 FUList2 FUList3 FUList4 FUList5 FUList6 FUList7 FUList8
FUList=system.cpu3.fuPool.FUList0 system.cpu3.fuPool.FUList1 system.cpu3.fuPool.FUList2 system.cpu3.fuPool.FUList3 system.cpu3.fuPool.FUList4 system.cpu3.fuPool.FUList5 system.cpu3.fuPool.FUList6 system.cpu3.fuPool.FUList7 system.cpu3.fuPool.FUList8
eventq_index=0

[system.cpu3.fuPool.FUList0]
type=FUDesc
children=opList
count=6
eventq_index=0
opList=system.cpu3.fuPool.FUList0.opList

[system.cpu3.fuPool.FUList0.opList]
type=OpDesc
eventq_index=0
issueLat=1
opClass=IntAlu
opLat=1

[system.cpu3.fuPool.FUList1]
type=FUDesc
children=opList0 opList1
count=2
eventq_index=0
opList=system.cpu3.fuPool.FUList1.opList0 system.cpu3.fuPool.FUList1.opList1

[system.cpu3.fuPool.FUList1.opList0]
type=OpDesc
eventq_index=0
issueLat=1
opClass=IntMult
opLat=3

[system.cpu3.fuPool.FUList1.opList1]
type=OpDesc
eventq_index=0
issueLat=19
opClass=IntDiv
opLat=20

[system.cpu3.fuPool.FUList2]
type=FUDesc
children=opList0 opList1 opList2
count=4
eventq_index=0
opList=system.cpu3.fuPool.FUList2.opList0 system.cpu3.fuPool.FUList2.opList1 system.cpu3.fuPool.FUList2.opList2

[system.cpu3.fuPool.FUList2.opList0]
type=OpDesc
eventq_index=0
issueLat=1
opClass=FloatAdd
opLat=2

[system.cpu3.fuPool.FUList2.opList1]
type=OpDesc
eventq_index=0
issueLat=1
opClass=FloatCmp
opLat=2

[system.cpu3.fuPool.FUList2.opList2]
type=OpDesc
eventq_index=0
issueLat=1
opClass=FloatCvt
opLat=2

[system.cpu3.fuPool.FUList3]
type=FUDesc
children=opList0 opList1 opList2
count=2
eventq_index=0
opList=system.cpu3.fuPool.FUList3.opList0 system.cpu3.fuPool.FUList3.opList1 system.cpu3.fuPool.FUList3.opList2

[system.cpu3.fuPool.FUList3.opList0]
type=OpDesc
eventq_index=0
issueLat=1
opClass=FloatMult
opLat=4
